<?xml version="1.0" encoding="UTF-8" standalone="yes"?>
<template encoding-version="1.2">
    <description></description>
    <groupId>7c84501d-d10c-407c-b9f3-1d80e38fe36a</groupId>
    <name>nifi_flows</name>
    <snippet>
        <processGroups>
            <id>6261e9ce-1b83-3f3f-0000-000000000000</id>
            <parentGroupId>46f95fe5-3024-31d8-0000-000000000000</parentGroupId>
            <position>
                <x>485.72514067327415</x>
                <y>0.0</y>
            </position>
            <comments></comments>
            <contents>
                <connections>
                    <id>1ed30c24-ccb6-3187-0000-000000000000</id>
                    <parentGroupId>6261e9ce-1b83-3f3f-0000-000000000000</parentGroupId>
                    <backPressureDataSizeThreshold>1 GB</backPressureDataSizeThreshold>
                    <backPressureObjectThreshold>10000</backPressureObjectThreshold>
                    <destination>
                        <groupId>6261e9ce-1b83-3f3f-0000-000000000000</groupId>
                        <id>706fe4e1-8d97-3d83-0000-000000000000</id>
                        <type>PROCESSOR</type>
                    </destination>
                    <flowFileExpiration>0 sec</flowFileExpiration>
                    <labelIndex>1</labelIndex>
                    <name></name>
                    <selectedRelationships>matched</selectedRelationships>
                    <source>
                        <groupId>6261e9ce-1b83-3f3f-0000-000000000000</groupId>
                        <id>f6b3b1f4-6175-3834-0000-000000000000</id>
                        <type>PROCESSOR</type>
                    </source>
                    <zIndex>0</zIndex>
                </connections>
                <connections>
                    <id>31a4fe38-e11a-3dab-0000-000000000000</id>
                    <parentGroupId>6261e9ce-1b83-3f3f-0000-000000000000</parentGroupId>
                    <backPressureDataSizeThreshold>1 GB</backPressureDataSizeThreshold>
                    <backPressureObjectThreshold>10000</backPressureObjectThreshold>
                    <destination>
                        <groupId>6261e9ce-1b83-3f3f-0000-000000000000</groupId>
                        <id>6766ae27-e731-31bf-0000-000000000000</id>
                        <type>PROCESSOR</type>
                    </destination>
                    <flowFileExpiration>0 sec</flowFileExpiration>
                    <labelIndex>1</labelIndex>
                    <name></name>
                    <selectedRelationships>success</selectedRelationships>
                    <source>
                        <groupId>6261e9ce-1b83-3f3f-0000-000000000000</groupId>
                        <id>b7de8c18-e257-3277-0000-000000000000</id>
                        <type>PROCESSOR</type>
                    </source>
                    <zIndex>0</zIndex>
                </connections>
                <connections>
                    <id>7ca07053-0a18-3356-0000-000000000000</id>
                    <parentGroupId>6261e9ce-1b83-3f3f-0000-000000000000</parentGroupId>
                    <backPressureDataSizeThreshold>1 GB</backPressureDataSizeThreshold>
                    <backPressureObjectThreshold>10000</backPressureObjectThreshold>
                    <destination>
                        <groupId>6261e9ce-1b83-3f3f-0000-000000000000</groupId>
                        <id>6dca4c6c-394e-37cf-0000-000000000000</id>
                        <type>PROCESSOR</type>
                    </destination>
                    <flowFileExpiration>0 sec</flowFileExpiration>
                    <labelIndex>1</labelIndex>
                    <name></name>
                    <selectedRelationships>merged</selectedRelationships>
                    <source>
                        <groupId>6261e9ce-1b83-3f3f-0000-000000000000</groupId>
                        <id>7ce45146-f736-39ad-0000-000000000000</id>
                        <type>PROCESSOR</type>
                    </source>
                    <zIndex>0</zIndex>
                </connections>
                <connections>
                    <id>9ed02fde-bde9-3736-0000-000000000000</id>
                    <parentGroupId>6261e9ce-1b83-3f3f-0000-000000000000</parentGroupId>
                    <backPressureDataSizeThreshold>1 GB</backPressureDataSizeThreshold>
                    <backPressureObjectThreshold>10000</backPressureObjectThreshold>
                    <destination>
                        <groupId>6261e9ce-1b83-3f3f-0000-000000000000</groupId>
                        <id>7ce45146-f736-39ad-0000-000000000000</id>
                        <type>PROCESSOR</type>
                    </destination>
                    <flowFileExpiration>0 sec</flowFileExpiration>
                    <labelIndex>1</labelIndex>
                    <name></name>
                    <selectedRelationships>success</selectedRelationships>
                    <source>
                        <groupId>6261e9ce-1b83-3f3f-0000-000000000000</groupId>
                        <id>706fe4e1-8d97-3d83-0000-000000000000</id>
                        <type>PROCESSOR</type>
                    </source>
                    <zIndex>0</zIndex>
                </connections>
                <connections>
                    <id>a2ec3ad0-308a-3743-0000-000000000000</id>
                    <parentGroupId>6261e9ce-1b83-3f3f-0000-000000000000</parentGroupId>
                    <backPressureDataSizeThreshold>1 GB</backPressureDataSizeThreshold>
                    <backPressureObjectThreshold>10000</backPressureObjectThreshold>
                    <bends>
                        <x>1199.0857448725474</x>
                        <y>612.6304224214338</y>
                    </bends>
                    <bends>
                        <x>1202.9180908203125</x>
                        <y>670.4789428710938</y>
                    </bends>
                    <destination>
                        <groupId>6261e9ce-1b83-3f3f-0000-000000000000</groupId>
                        <id>7ce45146-f736-39ad-0000-000000000000</id>
                        <type>PROCESSOR</type>
                    </destination>
                    <flowFileExpiration>0 sec</flowFileExpiration>
                    <labelIndex>1</labelIndex>
                    <name></name>
                    <selectedRelationships>failure</selectedRelationships>
                    <source>
                        <groupId>6261e9ce-1b83-3f3f-0000-000000000000</groupId>
                        <id>7ce45146-f736-39ad-0000-000000000000</id>
                        <type>PROCESSOR</type>
                    </source>
                    <zIndex>0</zIndex>
                </connections>
                <connections>
                    <id>a9f13f9e-f7fa-3061-0000-000000000000</id>
                    <parentGroupId>6261e9ce-1b83-3f3f-0000-000000000000</parentGroupId>
                    <backPressureDataSizeThreshold>1 GB</backPressureDataSizeThreshold>
                    <backPressureObjectThreshold>10000</backPressureObjectThreshold>
                    <bends>
                        <x>1195.5541933946638</x>
                        <y>840.5003707702949</y>
                    </bends>
                    <bends>
                        <x>1195.5541933946638</x>
                        <y>890.5003707702949</y>
                    </bends>
                    <destination>
                        <groupId>6261e9ce-1b83-3f3f-0000-000000000000</groupId>
                        <id>6dca4c6c-394e-37cf-0000-000000000000</id>
                        <type>PROCESSOR</type>
                    </destination>
                    <flowFileExpiration>0 sec</flowFileExpiration>
                    <labelIndex>1</labelIndex>
                    <name></name>
                    <selectedRelationships>failure</selectedRelationships>
                    <source>
                        <groupId>6261e9ce-1b83-3f3f-0000-000000000000</groupId>
                        <id>6dca4c6c-394e-37cf-0000-000000000000</id>
                        <type>PROCESSOR</type>
                    </source>
                    <zIndex>0</zIndex>
                </connections>
                <connections>
                    <id>b0e56b96-a249-38c8-0000-000000000000</id>
                    <parentGroupId>6261e9ce-1b83-3f3f-0000-000000000000</parentGroupId>
                    <backPressureDataSizeThreshold>1 GB</backPressureDataSizeThreshold>
                    <backPressureObjectThreshold>10000</backPressureObjectThreshold>
                    <destination>
                        <groupId>6261e9ce-1b83-3f3f-0000-000000000000</groupId>
                        <id>f6b3b1f4-6175-3834-0000-000000000000</id>
                        <type>PROCESSOR</type>
                    </destination>
                    <flowFileExpiration>0 sec</flowFileExpiration>
                    <labelIndex>1</labelIndex>
                    <name></name>
                    <selectedRelationships>success</selectedRelationships>
                    <source>
                        <groupId>6261e9ce-1b83-3f3f-0000-000000000000</groupId>
                        <id>158a70f0-eebe-3f30-0000-000000000000</id>
                        <type>PROCESSOR</type>
                    </source>
                    <zIndex>0</zIndex>
                </connections>
                <connections>
                    <id>d8eefc6f-b611-32e3-0000-000000000000</id>
                    <parentGroupId>6261e9ce-1b83-3f3f-0000-000000000000</parentGroupId>
                    <backPressureDataSizeThreshold>1 GB</backPressureDataSizeThreshold>
                    <backPressureObjectThreshold>10000</backPressureObjectThreshold>
                    <bends>
                        <x>1195.3544922763563</x>
                        <y>-43.65826534707736</y>
                    </bends>
                    <bends>
                        <x>1195.3544922763563</x>
                        <y>6.341734652922639</y>
                    </bends>
                    <destination>
                        <groupId>6261e9ce-1b83-3f3f-0000-000000000000</groupId>
                        <id>6766ae27-e731-31bf-0000-000000000000</id>
                        <type>PROCESSOR</type>
                    </destination>
                    <flowFileExpiration>0 sec</flowFileExpiration>
                    <labelIndex>1</labelIndex>
                    <name></name>
                    <selectedRelationships>failure</selectedRelationships>
                    <source>
                        <groupId>6261e9ce-1b83-3f3f-0000-000000000000</groupId>
                        <id>6766ae27-e731-31bf-0000-000000000000</id>
                        <type>PROCESSOR</type>
                    </source>
                    <zIndex>0</zIndex>
                </connections>
                <connections>
                    <id>f656c5db-a853-362d-0000-000000000000</id>
                    <parentGroupId>6261e9ce-1b83-3f3f-0000-000000000000</parentGroupId>
                    <backPressureDataSizeThreshold>1 GB</backPressureDataSizeThreshold>
                    <backPressureObjectThreshold>10000</backPressureObjectThreshold>
                    <destination>
                        <groupId>6261e9ce-1b83-3f3f-0000-000000000000</groupId>
                        <id>158a70f0-eebe-3f30-0000-000000000000</id>
                        <type>PROCESSOR</type>
                    </destination>
                    <flowFileExpiration>0 sec</flowFileExpiration>
                    <labelIndex>1</labelIndex>
                    <name></name>
                    <selectedRelationships>success</selectedRelationships>
                    <source>
                        <groupId>6261e9ce-1b83-3f3f-0000-000000000000</groupId>
                        <id>6766ae27-e731-31bf-0000-000000000000</id>
                        <type>PROCESSOR</type>
                    </source>
                    <zIndex>0</zIndex>
                </connections>
                <connections>
                    <id>fab65f28-2c8e-369e-0000-000000000000</id>
                    <parentGroupId>6261e9ce-1b83-3f3f-0000-000000000000</parentGroupId>
                    <backPressureDataSizeThreshold>1 GB</backPressureDataSizeThreshold>
                    <backPressureObjectThreshold>10000</backPressureObjectThreshold>
                    <destination>
                        <groupId>6261e9ce-1b83-3f3f-0000-000000000000</groupId>
                        <id>cef3166a-b9df-3650-0000-000000000000</id>
                        <type>PROCESSOR</type>
                    </destination>
                    <flowFileExpiration>0 sec</flowFileExpiration>
                    <labelIndex>1</labelIndex>
                    <name></name>
                    <selectedRelationships>success</selectedRelationships>
                    <source>
                        <groupId>6261e9ce-1b83-3f3f-0000-000000000000</groupId>
                        <id>6766ae27-e731-31bf-0000-000000000000</id>
                        <type>PROCESSOR</type>
                    </source>
                    <zIndex>0</zIndex>
                </connections>
                <controllerServices>
                    <id>8cdd21b1-274f-3c63-0000-000000000000</id>
                    <parentGroupId>6261e9ce-1b83-3f3f-0000-000000000000</parentGroupId>
                    <bundle>
                        <artifact>nifi-record-serialization-services-nar</artifact>
                        <group>org.apache.nifi</group>
                        <version>1.7.0.3.2.0.0-520</version>
                    </bundle>
                    <comments></comments>
                    <descriptors>
                        <entry>
                            <key>Schema Write Strategy</key>
                            <value>
<name>Schema Write Strategy</name>
                            </value>
                        </entry>
                        <entry>
                            <key>schema-access-strategy</key>
                            <value>
<name>schema-access-strategy</name>
                            </value>
                        </entry>
                        <entry>
                            <key>schema-registry</key>
                            <value>
<identifiesControllerService>org.apache.nifi.schemaregistry.services.SchemaRegistry</identifiesControllerService>
<name>schema-registry</name>
                            </value>
                        </entry>
                        <entry>
                            <key>schema-name</key>
                            <value>
<name>schema-name</name>
                            </value>
                        </entry>
                        <entry>
                            <key>schema-version</key>
                            <value>
<name>schema-version</name>
                            </value>
                        </entry>
                        <entry>
                            <key>schema-branch</key>
                            <value>
<name>schema-branch</name>
                            </value>
                        </entry>
                        <entry>
                            <key>schema-text</key>
                            <value>
<name>schema-text</name>
                            </value>
                        </entry>
                        <entry>
                            <key>Date Format</key>
                            <value>
<name>Date Format</name>
                            </value>
                        </entry>
                        <entry>
                            <key>Time Format</key>
                            <value>
<name>Time Format</name>
                            </value>
                        </entry>
                        <entry>
                            <key>Timestamp Format</key>
                            <value>
<name>Timestamp Format</name>
                            </value>
                        </entry>
                        <entry>
                            <key>CSV Format</key>
                            <value>
<name>CSV Format</name>
                            </value>
                        </entry>
                        <entry>
                            <key>Value Separator</key>
                            <value>
<name>Value Separator</name>
                            </value>
                        </entry>
                        <entry>
                            <key>Include Header Line</key>
                            <value>
<name>Include Header Line</name>
                            </value>
                        </entry>
                        <entry>
                            <key>Quote Character</key>
                            <value>
<name>Quote Character</name>
                            </value>
                        </entry>
                        <entry>
                            <key>Escape Character</key>
                            <value>
<name>Escape Character</name>
                            </value>
                        </entry>
                        <entry>
                            <key>Comment Marker</key>
                            <value>
<name>Comment Marker</name>
                            </value>
                        </entry>
                        <entry>
                            <key>Null String</key>
                            <value>
<name>Null String</name>
                            </value>
                        </entry>
                        <entry>
                            <key>Trim Fields</key>
                            <value>
<name>Trim Fields</name>
                            </value>
                        </entry>
                        <entry>
                            <key>Quote Mode</key>
                            <value>
<name>Quote Mode</name>
                            </value>
                        </entry>
                        <entry>
                            <key>Record Separator</key>
                            <value>
<name>Record Separator</name>
                            </value>
                        </entry>
                        <entry>
                            <key>Include Trailing Delimiter</key>
                            <value>
<name>Include Trailing Delimiter</name>
                            </value>
                        </entry>
                        <entry>
                            <key>csvutils-character-set</key>
                            <value>
<name>csvutils-character-set</name>
                            </value>
                        </entry>
                    </descriptors>
                    <name>CSVRecordSetWriter</name>
                    <persistsState>false</persistsState>
                    <properties>
                        <entry>
                            <key>Schema Write Strategy</key>
                            <value>no-schema</value>
                        </entry>
                        <entry>
                            <key>schema-access-strategy</key>
                            <value>inherit-record-schema</value>
                        </entry>
                        <entry>
                            <key>schema-registry</key>
                        </entry>
                        <entry>
                            <key>schema-name</key>
                            <value>${schema.name}</value>
                        </entry>
                        <entry>
                            <key>schema-version</key>
                        </entry>
                        <entry>
                            <key>schema-branch</key>
                        </entry>
                        <entry>
                            <key>schema-text</key>
                            <value>${avro.schema}</value>
                        </entry>
                        <entry>
                            <key>Date Format</key>
                        </entry>
                        <entry>
                            <key>Time Format</key>
                        </entry>
                        <entry>
                            <key>Timestamp Format</key>
                        </entry>
                        <entry>
                            <key>CSV Format</key>
                            <value>custom</value>
                        </entry>
                        <entry>
                            <key>Value Separator</key>
                            <value>,</value>
                        </entry>
                        <entry>
                            <key>Include Header Line</key>
                            <value>true</value>
                        </entry>
                        <entry>
                            <key>Quote Character</key>
                            <value>"</value>
                        </entry>
                        <entry>
                            <key>Escape Character</key>
                            <value>\</value>
                        </entry>
                        <entry>
                            <key>Comment Marker</key>
                        </entry>
                        <entry>
                            <key>Null String</key>
                        </entry>
                        <entry>
                            <key>Trim Fields</key>
                            <value>true</value>
                        </entry>
                        <entry>
                            <key>Quote Mode</key>
                            <value>MINIMAL</value>
                        </entry>
                        <entry>
                            <key>Record Separator</key>
                            <value>\n</value>
                        </entry>
                        <entry>
                            <key>Include Trailing Delimiter</key>
                            <value>false</value>
                        </entry>
                        <entry>
                            <key>csvutils-character-set</key>
                            <value>UTF-8</value>
                        </entry>
                    </properties>
                    <state>ENABLED</state>
                    <type>org.apache.nifi.csv.CSVRecordSetWriter</type>
                </controllerServices>
                <controllerServices>
                    <id>da4440e1-40d3-3364-0000-000000000000</id>
                    <parentGroupId>6261e9ce-1b83-3f3f-0000-000000000000</parentGroupId>
                    <bundle>
                        <artifact>nifi-record-serialization-services-nar</artifact>
                        <group>org.apache.nifi</group>
                        <version>1.7.0.3.2.0.0-520</version>
                    </bundle>
                    <comments></comments>
                    <descriptors>
                        <entry>
                            <key>schema-access-strategy</key>
                            <value>
<name>schema-access-strategy</name>
                            </value>
                        </entry>
                        <entry>
                            <key>schema-registry</key>
                            <value>
<identifiesControllerService>org.apache.nifi.schemaregistry.services.SchemaRegistry</identifiesControllerService>
<name>schema-registry</name>
                            </value>
                        </entry>
                        <entry>
                            <key>schema-name</key>
                            <value>
<name>schema-name</name>
                            </value>
                        </entry>
                        <entry>
                            <key>schema-version</key>
                            <value>
<name>schema-version</name>
                            </value>
                        </entry>
                        <entry>
                            <key>schema-branch</key>
                            <value>
<name>schema-branch</name>
                            </value>
                        </entry>
                        <entry>
                            <key>schema-text</key>
                            <value>
<name>schema-text</name>
                            </value>
                        </entry>
                        <entry>
                            <key>csv-reader-csv-parser</key>
                            <value>
<name>csv-reader-csv-parser</name>
                            </value>
                        </entry>
                        <entry>
                            <key>Date Format</key>
                            <value>
<name>Date Format</name>
                            </value>
                        </entry>
                        <entry>
                            <key>Time Format</key>
                            <value>
<name>Time Format</name>
                            </value>
                        </entry>
                        <entry>
                            <key>Timestamp Format</key>
                            <value>
<name>Timestamp Format</name>
                            </value>
                        </entry>
                        <entry>
                            <key>CSV Format</key>
                            <value>
<name>CSV Format</name>
                            </value>
                        </entry>
                        <entry>
                            <key>Value Separator</key>
                            <value>
<name>Value Separator</name>
                            </value>
                        </entry>
                        <entry>
                            <key>Skip Header Line</key>
                            <value>
<name>Skip Header Line</name>
                            </value>
                        </entry>
                        <entry>
                            <key>ignore-csv-header</key>
                            <value>
<name>ignore-csv-header</name>
                            </value>
                        </entry>
                        <entry>
                            <key>Quote Character</key>
                            <value>
<name>Quote Character</name>
                            </value>
                        </entry>
                        <entry>
                            <key>Escape Character</key>
                            <value>
<name>Escape Character</name>
                            </value>
                        </entry>
                        <entry>
                            <key>Comment Marker</key>
                            <value>
<name>Comment Marker</name>
                            </value>
                        </entry>
                        <entry>
                            <key>Null String</key>
                            <value>
<name>Null String</name>
                            </value>
                        </entry>
                        <entry>
                            <key>Trim Fields</key>
                            <value>
<name>Trim Fields</name>
                            </value>
                        </entry>
                        <entry>
                            <key>csvutils-character-set</key>
                            <value>
<name>csvutils-character-set</name>
                            </value>
                        </entry>
                    </descriptors>
                    <name>CSVReader</name>
                    <persistsState>false</persistsState>
                    <properties>
                        <entry>
                            <key>schema-access-strategy</key>
                            <value>schema-text-property</value>
                        </entry>
                        <entry>
                            <key>schema-registry</key>
                        </entry>
                        <entry>
                            <key>schema-name</key>
                            <value>${schema.name}</value>
                        </entry>
                        <entry>
                            <key>schema-version</key>
                        </entry>
                        <entry>
                            <key>schema-branch</key>
                        </entry>
                        <entry>
                            <key>schema-text</key>
                            <value>${avro.schema}</value>
                        </entry>
                        <entry>
                            <key>csv-reader-csv-parser</key>
                            <value>commons-csv</value>
                        </entry>
                        <entry>
                            <key>Date Format</key>
                        </entry>
                        <entry>
                            <key>Time Format</key>
                        </entry>
                        <entry>
                            <key>Timestamp Format</key>
                        </entry>
                        <entry>
                            <key>CSV Format</key>
                            <value>custom</value>
                        </entry>
                        <entry>
                            <key>Value Separator</key>
                            <value>,</value>
                        </entry>
                        <entry>
                            <key>Skip Header Line</key>
                            <value>false</value>
                        </entry>
                        <entry>
                            <key>ignore-csv-header</key>
                            <value>false</value>
                        </entry>
                        <entry>
                            <key>Quote Character</key>
                            <value>"</value>
                        </entry>
                        <entry>